random text 
append
append2
hi!
new line. Repo has to be pulled now before pushing.
different line.
another line. 
bla.
bla1.
on the master branch!

